distopf/cases/dss/34Bus/ieee34-2_Curr_Elem.txt

CIRCUIT ELEMENT CURRENTS

(Currents into element from indicated bus)

Power Delivery Elements

  Bus     Phase    Magnitude, A     Angle      (Real)   +j  (Imag)

ELEMENT = "Vsource.source"
SOURCEBUS     1           16.951 /_ -162.8 =    -16.189 +j   -5.0259
SOURCEBUS     2            15.07 /_   83.2 =     1.7873 +j    14.964
SOURCEBUS     3           17.498 /_  -34.6 =     14.402 +j   -9.9377
------------
SOURCEBUS     0           16.951 /_   17.2 =     16.189 +j    5.0259
SOURCEBUS     0            15.07 /_  -96.8 =    -1.7873 +j   -14.964
SOURCEBUS     0           17.498 /_  145.4 =    -14.402 +j    9.9377

ELEMENT = "Transformer.subxf"
SOURCEBUS     1           16.951 /_   17.2 =     16.189 +j    5.0259
SOURCEBUS     2            15.07 /_  -96.8 =    -1.7873 +j   -14.964
SOURCEBUS     3           17.498 /_  145.4 =    -14.402 +j    9.9377
SOURCEBUS     0                0 /_    0.0 =          0 +j         0
SOURCEBUS Resid       6.5854E-10 /_  -45.0 =   4.6566E-10 +j -4.6566E-10
------------
800           1           51.596 /_  167.3 =    -50.329 +j    11.361
800           2           44.815 /_   52.4 =     27.373 +j    35.483
800           3            40.91 /_  -62.7 =     18.795 +j   -36.337
800           0           11.302 /_  -68.4 =     4.1616 +j   -10.508
800       Resid         4.165E-9 /_  116.6 =   -1.8626E-9 +j 3.7253E-9

ELEMENT = "Line.l1"
800           1           51.596 /_  -12.7 =     50.329 +j   -11.361
800           2           44.815 /_ -127.6 =    -27.373 +j   -35.483
800           3            40.91 /_  117.3 =    -18.795 +j    36.337
800       Resid           11.302 /_  111.6 =     -4.1616 +j    10.508
------------
802           1            51.61 /_  167.2 =    -50.333 +j    11.409
802           2           44.815 /_   52.3 =     27.409 +j    35.456
802           3           40.914 /_  -62.7 =      18.76 +j    -36.36
802       Resid             11.3 /_  -68.4 =      4.1637 +j   -10.505

ELEMENT = "Line.l2a"
802           1            51.61 /_  -12.8 =     50.333 +j   -11.409
802           2           44.815 /_ -127.7 =    -27.409 +j   -35.456
802           3           40.914 /_  117.3 =     -18.76 +j     36.36
802       Resid             11.3 /_  111.6 =     -4.1637 +j    10.505
------------
MID806        1           51.614 /_  167.2 =    -50.334 +j    11.426
MID806        2           44.815 /_   52.3 =     27.422 +j    35.446
MID806        3           40.916 /_  -62.7 =     18.748 +j   -36.368
MID806    Resid             11.3 /_  -68.4 =      4.1644 +j   -10.505

ELEMENT = "Line.l2b"
MID806        1           51.614 /_  -12.8 =     50.334 +j   -11.426
MID806        2           42.715 /_ -126.8 =    -25.562 +j   -34.223
MID806        3           39.224 /_  118.5 =    -18.725 +j    34.466
MID806    Resid           12.713 /_  118.4 =     -6.0471 +j    11.183
------------
806           1           51.619 /_  167.2 =    -50.335 +j    11.442
806           2           42.715 /_   53.2 =     25.574 +j    34.213
806           3           39.225 /_  -61.5 =     18.713 +j   -34.473
806       Resid           12.713 /_  -61.6 =      6.0478 +j   -11.182

ELEMENT = "Line.l3"
806           1           51.619 /_  -12.8 =     50.335 +j   -11.442
806           2           42.715 /_ -126.8 =    -25.574 +j   -34.213
806           3           39.225 /_  118.5 =    -18.713 +j    34.473
806       Resid           12.713 /_  118.4 =     -6.0478 +j    11.182
------------
808           1           51.792 /_  166.6 =    -50.373 +j     12.04
808           2            42.71 /_   52.5 =     26.022 +j    33.867
808           3           39.267 /_  -62.3 =     18.277 +j   -34.755
808       Resid           12.699 /_  -61.4 =       6.074 +j   -11.152

ELEMENT = "Line.l4a"
808           2           1.2152 /_ -144.6 =   -0.99085 +j  -0.70345
------------
MID810        2           1.2294 /_   33.9 =     1.0203 +j   0.68577

ELEMENT = "Line.l4b"
MID810        2         0.034362 /_  -31.0 =   0.029466 +j -0.017678
------------
810           2       1.2862E-12 /_ -135.0 =  -9.0949E-13 +j -9.0949E-13

ELEMENT = "Line.l5"
808           1           51.792 /_  -13.4 =     50.373 +j    -12.04
808           2            41.55 /_ -127.0 =    -25.031 +j   -33.163
808           3           39.267 /_  117.7 =    -18.277 +j    34.755
808       Resid           12.613 /_  124.1 =     -7.0648 +j    10.449
------------
812           1           51.986 /_  165.8 =    -50.408 +j    12.715
812           2           41.539 /_   52.1 =     25.537 +j    32.762
812           3           39.315 /_  -63.1 =     17.775 +j   -35.068
812       Resid           12.597 /_  -55.7 =      7.0951 +j   -10.409

ELEMENT = "Line.l6"
812           1           51.986 /_  -14.2 =     50.408 +j   -12.715
812           2           41.539 /_ -127.9 =    -25.537 +j   -32.762
812           3           39.315 /_  116.9 =    -17.775 +j    35.068
812       Resid           12.597 /_  124.3 =     -7.0951 +j    10.409
------------
814           1           52.136 /_  165.3 =    -50.428 +j    13.234
814           2           41.532 /_   51.4 =     25.927 +j    32.446
814           3           39.352 /_  -63.8 =     17.382 +j   -35.305
814       Resid           12.582 /_  -55.5 =      7.1188 +j   -10.375

ELEMENT = "Line.l7"
814R          1           48.218 /_  -14.7 =     46.639 +j    -12.24
814R          2           40.274 /_ -128.6 =    -25.141 +j   -31.463
814R          3            38.16 /_  116.2 =    -16.855 +j    34.235
814R      Resid           10.544 /_  116.1 =     -4.6418 +j    9.4669
------------
850           1           48.218 /_  165.3 =    -46.639 +j     12.24
850           2           40.274 /_   51.4 =     25.141 +j    31.463
850           3            38.16 /_  -63.8 =     16.855 +j   -34.235
850       Resid           10.544 /_  -63.9 =      4.6418 +j   -9.4669

ELEMENT = "Line.l24"
850           1           48.218 /_  -14.7 =     46.639 +j    -12.24
850           2           40.274 /_ -128.6 =    -25.141 +j   -31.463
850           3            38.16 /_  116.2 =    -16.855 +j    34.235
850       Resid           10.544 /_  116.1 =     -4.6418 +j    9.4669
------------
816           1           48.219 /_  165.3 =    -46.639 +j    12.245
816           2           40.274 /_   51.4 =     25.145 +j    31.459
816           3            38.16 /_  -63.8 =     16.851 +j   -34.238
816       Resid           10.543 /_  -63.9 =      4.6421 +j   -9.4666

ELEMENT = "Line.l8"
816           1           12.974 /_  -26.7 =     11.593 +j   -5.8247
------------
818           1           12.983 /_  153.2 =    -11.593 +j    5.8448

ELEMENT = "Line.l9a"
816           1           35.629 /_  -10.4 =     35.045 +j   -6.4205
816           2           40.274 /_ -128.6 =    -25.145 +j   -31.459
816           3            38.16 /_  116.2 =    -16.851 +j    34.238
816       Resid           7.8476 /_   27.7 =      6.9514 +j    3.6419
------------
MID824        1           35.647 /_  169.5 =    -35.048 +j    6.5104
MID824        2           40.272 /_   51.2 =     25.211 +j    31.405
MID824        3           38.167 /_  -63.9 =     16.785 +j   -34.278
MID824    Resid           7.8422 /_ -152.4 =     -6.9475 +j   -3.6376

ELEMENT = "Line.l9b"
MID824        1           35.647 /_  -10.5 =     35.048 +j   -6.5104
MID824        2           40.063 /_ -128.8 =    -25.121 +j   -31.208
MID824        3           38.029 /_  116.3 =    -16.874 +j    34.081
MID824    Resid           7.8422 /_   27.6 =      6.9475 +j    3.6376
------------
824           1           35.666 /_  169.3 =     -35.05 +j    6.5999
824           2           40.061 /_   51.0 =     25.186 +j    31.154
824           3           38.036 /_  -63.8 =     16.807 +j   -34.121
824       Resid           7.8368 /_ -152.4 =     -6.9436 +j   -3.6333

ELEMENT = "Line.l10a"
818           1           12.983 /_  -26.8 =     11.593 +j   -5.8448
------------
MID820        1           13.102 /_  152.1 =    -11.581 +j    6.1258

ELEMENT = "Line.l10b"
MID820        1           10.434 /_  -27.6 =     9.2453 +j   -4.8374
------------
820           1           10.556 /_  151.0 =     -9.234 +j    5.1152

ELEMENT = "Line.l11a"
820           1           10.556 /_  -29.0 =      9.234 +j   -5.1152
------------
MID822        1           10.592 /_  150.6 =    -9.2308 +j    5.1939

ELEMENT = "Line.l11b"
MID822        1         0.078663 /_   87.7 =  0.0032057 +j  0.078598
------------
822           1       2.2737E-13 /_  -90.0 =          0 +j -2.2737E-13

ELEMENT = "Line.l12a"
824           2           3.0952 /_ -148.9 =    -2.6516 +j   -1.5966
------------
MID826        2            3.103 /_   30.8 =     2.6665 +j     1.587

ELEMENT = "Line.l12b"
MID826        2         0.017693 /_  -33.0 =   0.014844 +j -0.0096282
------------
826           2       3.7499E-12 /_  -14.0 =  3.638E-12 +j -9.0949E-13

ELEMENT = "Line.l13a"
824           1           35.666 /_  -10.7 =      35.05 +j   -6.5999
824           2           37.168 /_ -127.3 =    -22.535 +j   -29.557
824           3           38.036 /_  116.2 =    -16.807 +j    34.121
824       Resid           4.7507 /_   25.4 =       4.292 +j    2.0367
------------
MID828        1           35.668 /_  169.3 =     -35.05 +j    6.6073
MID828        2           37.168 /_   52.7 =      22.54 +j    29.553
MID828        3           38.036 /_  -63.8 =     16.802 +j   -34.124
MID828    Resid           4.7503 /_ -154.6 =     -4.2917 +j   -2.0364

ELEMENT = "Line.l13b"
MID828        1           35.668 /_  -10.7 =      35.05 +j   -6.6073
MID828        2           37.168 /_ -127.3 =     -22.54 +j   -29.553
MID828        3           37.758 /_  116.4 =    -16.796 +j    33.816
MID828    Resid           4.8845 /_   28.7 =      4.2854 +j    2.3439
------------
828           1           35.669 /_  169.3 =    -35.051 +j    6.6146
828           2           37.167 /_   52.7 =     22.545 +j    29.549
828           3           37.758 /_  -63.6 =      16.79 +j    -33.82
828       Resid           4.8841 /_ -151.3 =     -4.2851 +j   -2.3436

ELEMENT = "Line.l14a"
828           1           35.669 /_  -10.7 =     35.051 +j   -6.6146
828           2           37.167 /_ -127.3 =    -22.545 +j   -29.549
828           3           37.758 /_  116.4 =     -16.79 +j     33.82
828       Resid           4.8841 /_   28.7 =      4.2851 +j    2.3436
------------
MID830        1           35.707 /_  169.0 =    -35.055 +j    6.7924
MID830        2            37.16 /_   52.4 =     22.674 +j    29.441
MID830        3            37.77 /_  -63.8 =     16.658 +j   -33.898
MID830    Resid            4.873 /_ -151.4 =     -4.2771 +j   -2.3351

ELEMENT = "Line.l14b"
MID830        1           35.197 /_  -10.7 =      34.58 +j   -6.5635
MID830        2            37.16 /_ -127.6 =    -22.674 +j   -29.441
MID830        3            37.77 /_  116.2 =    -16.658 +j    33.898
MID830    Resid           5.1982 /_   23.9 =      4.7524 +j    2.1062
------------
830           1           35.234 /_  169.0 =    -34.583 +j    6.7398
830           2           37.153 /_   52.1 =     22.801 +j    29.333
830           3           37.782 /_  -64.1 =     16.527 +j   -33.975
830       Resid           5.1875 /_ -156.1 =     -4.7444 +j   -2.0979

ELEMENT = "Line.l15"
830           1            34.02 /_   -9.9 =      33.51 +j   -5.8683
830           2           36.434 /_ -127.4 =    -22.131 +j   -28.943
830           3           36.471 /_  116.2 =    -16.123 +j    32.713
830       Resid           5.1875 /_   23.9 =      4.7444 +j    2.0979
------------
854           1           34.022 /_  170.1 =     -33.51 +j    5.8773
854           2           36.434 /_   52.6 =     22.137 +j    28.937
854           3           36.471 /_  -63.8 =     16.117 +j   -32.717
854       Resid           5.1869 /_ -156.1 =      -4.744 +j   -2.0974

ELEMENT = "Line.l16a"
832           1           21.311 /_    0.5 =      21.31 +j   0.18489
832           2           23.428 /_ -116.8 =    -10.551 +j   -20.918
832           3           24.342 /_  128.3 =      -15.1 +j    19.092
832       Resid           4.6412 /_   20.7 =      4.3411 +j    1.6417
------------
MID858        1           21.311 /_ -179.6 =    -21.311 +j  -0.14108
MID858        2           23.418 /_   63.1 =     10.582 +j    20.891
MID858        3           24.336 /_  -51.7 =     15.067 +j    -19.11
MID858    Resid           4.6384 /_ -159.3 =     -4.3389 +j   -1.6396

ELEMENT = "Line.l16b"
MID858        1           20.856 /_    1.0 =     20.853 +j   0.36441
MID858        2           23.168 /_ -116.2 =    -10.216 +j   -20.794
MID858        3           24.027 /_  128.6 =    -14.976 +j    18.789
MID858    Resid           4.6384 /_   20.7 =      4.3389 +j    1.6396
------------
858           1           20.856 /_ -179.1 =    -20.854 +j  -0.32065
858           2           23.157 /_   63.7 =     10.247 +j    20.766
858           3           24.021 /_  -51.5 =     14.943 +j   -18.808
858       Resid           4.6356 /_ -159.3 =     -4.3367 +j   -1.6376

ELEMENT = "Line.l29a"
858           1           20.725 /_    1.0 =     20.722 +j   0.37602
858           2           23.157 /_ -116.3 =    -10.247 +j   -20.766
858           3           24.021 /_  128.5 =    -14.943 +j    18.808
858       Resid           4.7403 /_   19.5 =      4.4684 +j    1.5823
------------
MID834        1           20.725 /_ -179.1 =    -20.722 +j  -0.32402
MID834        2           23.144 /_   63.6 =     10.284 +j    20.734
MID834        3           24.014 /_  -51.6 =     14.904 +j    -18.83
MID834    Resid            4.737 /_ -160.5 =     -4.4657 +j   -1.5799

ELEMENT = "Line.l29b"
MID834        1           20.295 /_    2.4 =     20.278 +j   0.83288
MID834        2           22.411 /_ -115.8 =    -9.7587 +j   -20.175
MID834        3           23.239 /_  130.2 =    -14.985 +j    17.762
MID834    Resid            4.737 /_   19.5 =      4.4657 +j    1.5799
------------
834           1           20.293 /_ -177.8 =    -20.278 +j  -0.78095
834           2           22.398 /_   64.1 =     9.7957 +j    20.143
834           3           23.231 /_  -50.0 =     14.946 +j   -17.784
834       Resid           4.7337 /_ -160.5 =     -4.4631 +j   -1.5775

ELEMENT = "Line.l18"
834           1            14.75 /_   34.7 =     12.126 +j    8.3972
834           2            16.36 /_  -95.5 =    -1.5789 +j   -16.284
834           3           15.123 /_  151.0 =    -13.231 +j    7.3237
834       Resid           2.7421 /_   11.8 =      2.6837 +j   0.56304
------------
842           1           14.747 /_ -145.3 =    -12.126 +j   -8.3922
842           2           16.358 /_   84.4 =     1.5825 +j    16.281
842           3            15.12 /_  -29.0 =     13.227 +j   -7.3258
842       Resid           2.7418 /_ -168.2 =     -2.6834 +j  -0.56281

ELEMENT = "Line.l19a"
836           1           1.4957 /_  -20.0 =     1.4057 +j  -0.51112
836           2           2.3314 /_ -152.0 =    -2.0588 +j   -1.0941
836           3           1.7465 /_   67.9 =    0.65665 +j    1.6184
836       Resid         0.013697 /_ -105.1 =   -0.003566 +j -0.013225
------------
MID840        1           1.4984 /_  159.7 =    -1.4058 +j   0.51877
MID840        2            2.334 /_   27.8 =     2.0642 +j    1.0893
MID840        3           1.7517 /_ -112.2 =   -0.66242 +j   -1.6216
MID840    Resid         0.014138 /_   73.7 =    0.003959 +j  0.013572

ELEMENT = "Line.l19b"
MID840        1          0.78807 /_  -40.7 =    0.59755 +j   -0.5138
MID840        2          0.78942 /_ -161.9 =    -0.7502 +j  -0.24572
MID840        3           0.7888 /_   78.5 =    0.15661 +j    0.7731
MID840    Resid         0.014138 /_ -106.3 =   -0.003959 +j -0.013572
------------
840           1          0.79313 /_  138.9 =   -0.59761 +j   0.52146
840           2          0.79313 /_   17.7 =    0.75564 +j   0.24095
840           3          0.79312 /_ -101.8 =   -0.16238 +j  -0.77632
840       Resid         0.014584 /_   72.6 =   0.0043519 +j   0.01392

ELEMENT = "Line.l21a"
842           1           14.747 /_   34.7 =     12.126 +j    8.3922
842           2           16.358 /_  -95.6 =    -1.5825 +j   -16.281
842           3            15.12 /_  151.0 =    -13.227 +j    7.3258
842       Resid           2.7418 /_   11.8 =      2.6834 +j   0.56281
------------
MID844        1            14.74 /_ -145.4 =    -12.126 +j   -8.3802
MID844        2           16.351 /_   84.4 =      1.591 +j    16.273
MID844        3           15.115 /_  -29.0 =     13.218 +j   -7.3309
MID844    Resid           2.7411 /_ -168.2 =     -2.6828 +j  -0.56226

ELEMENT = "Line.l21b"
MID844        1           14.483 /_   37.2 =     11.539 +j    8.7514
MID844        2           16.351 /_  -95.6 =     -1.591 +j   -16.273
MID844        3           15.115 /_  151.0 =    -13.218 +j    7.3309
MID844    Resid           3.2754 /_    3.3 =      3.2698 +j   0.19102
------------
844           1           14.475 /_ -142.9 =    -11.539 +j   -8.7394
844           2           16.344 /_   84.4 =     1.5996 +j    16.266
844           3           15.109 /_  -29.0 =     13.209 +j   -7.3359
844       Resid           3.2747 /_ -176.7 =     -3.2692 +j  -0.19047

ELEMENT = "Line.l22a"
844           1           9.8335 /_   78.9 =     1.8927 +j    9.6497
844           2           9.4442 /_  -63.6 =     4.1938 +j    -8.462
844           3           9.4054 /_ -170.7 =    -9.2811 +j   -1.5241
844       Resid           3.2123 /_    6.0 =      3.1946 +j   0.33642
------------
MID846        1           9.8018 /_ -101.1 =     -1.893 +j   -9.6173
MID846        2           9.4158 /_  116.3 =    -4.1707 +j    8.4418
MID846        3           9.3791 /_    9.3 =     9.2566 +j    1.5105
MID846    Resid           3.2105 /_ -174.0 =     -3.1929 +j  -0.33495

ELEMENT = "Line.l22b"
MID846        1           9.8018 /_   78.9 =      1.893 +j    9.6173
MID846        2            9.484 /_  -52.4 =     5.7882 +j   -7.5129
MID846        3           9.8171 /_ -161.9 =     -9.332 +j    -3.048
MID846    Resid           1.9015 /_   29.8 =      1.6508 +j   0.94359
------------
846           1             9.77 /_ -101.2 =    -1.8932 +j   -9.5849
846           2           9.4539 /_  127.6 =    -5.7652 +j    7.4926
846           3           9.7897 /_   18.1 =     9.3075 +j    3.0343
846       Resid           1.8993 /_ -150.3 =     -1.6491 +j  -0.94212

ELEMENT = "Line.l23a"
846           1             9.77 /_   78.8 =     1.8932 +j    9.5849
846           2           9.4539 /_  -52.4 =     5.7652 +j   -7.4926
846           3           9.7897 /_ -161.9 =    -9.3075 +j   -3.0343
846       Resid           1.8993 /_   29.7 =      1.6491 +j   0.94212
------------
MID848        1           9.7654 /_ -101.2 =    -1.8933 +j   -9.5801
MID848        2           9.4496 /_  127.6 =    -5.7618 +j    7.4897
MID848        3           9.7857 /_   18.1 =      9.304 +j    3.0324
MID848    Resid            1.899 /_ -150.3 =     -1.6489 +j  -0.94191

ELEMENT = "Line.l23b"
MID848        1           9.7654 /_   78.8 =     1.8933 +j    9.5801
MID848        2           9.8259 /_  -42.5 =      7.248 +j   -6.6343
MID848        3           9.7857 /_ -161.9 =     -9.304 +j   -3.0324
MID848    Resid          0.18429 /_   28.0 =     0.16271 +j  0.086543
------------
848           1           9.7608 /_ -101.2 =    -1.8933 +j   -9.5754
848           2           9.8214 /_  137.5 =    -7.2447 +j    6.6314
848           3           9.7817 /_   18.0 =     9.3004 +j    3.0304
848       Resid          0.18398 /_ -152.0 =    -0.16246 +j  -0.08633

ELEMENT = "Line.l26a"
854           2          0.30704 /_  -98.8 =  -0.046923 +j  -0.30344
------------
MID856        2          0.27912 /_   55.4 =    0.15858 +j   0.22969

ELEMENT = "Line.l26b"
MID856        2           0.1338 /_  -33.4 =    0.11165 +j -0.073746
------------
856           2       4.5475E-13 /_  180.0 =  -4.5475E-13 +j         0

ELEMENT = "Line.l27"
854           1           34.022 /_   -9.9 =      33.51 +j   -5.8773
854           2           36.165 /_ -127.6 =     -22.09 +j   -28.634
854           3           36.471 /_  116.2 =    -16.117 +j    32.717
854       Resid            5.028 /_   20.9 =       4.697 +j     1.794
------------
852           1           34.144 /_  169.0 =     -33.52 +j    6.4999
852           2           36.138 /_   51.4 =     22.537 +j     28.25
852           3            36.51 /_  -64.6 =      15.65 +j   -32.985
852       Resid           4.9896 /_ -159.3 =      -4.667 +j    -1.765

ELEMENT = "Line.l25"
852R          1           31.762 /_  -11.0 =     31.181 +j   -6.0464
852R          2           33.617 /_ -128.6 =    -20.964 +j   -26.279
852R          3           33.962 /_  115.4 =    -14.558 +j    30.684
852R      Resid           4.6415 /_   20.7 =      4.3414 +j    1.6419
------------
832           1           31.762 /_  169.0 =    -31.181 +j    6.0466
832           2           33.617 /_   51.4 =     20.965 +j    26.279
832           3           33.962 /_  -64.6 =     14.558 +j   -30.684
832       Resid           4.6415 /_ -159.3 =     -4.3414 +j   -1.6419

ELEMENT = "Transformer.xfm1"
832           1           11.674 /_  -32.3 =     9.8712 +j   -6.2315
832           2           11.713 /_ -152.8 =    -10.414 +j   -5.3611
832           3           11.605 /_   87.3 =    0.54232 +j    11.592
832           0       0.00035875 /_   41.5 =  0.00026864 +j 0.00023777
832       Resid        9.3474E-8 /_ -145.0 =   -7.6547E-8 +j -5.3646E-8
------------
888           1           69.873 /_  147.7 =    -59.085 +j    37.299
888           2           70.108 /_   27.2 =     62.333 +j    32.089
888           3           69.463 /_  -92.7 =     -3.246 +j   -69.387
888           0        0.0021473 /_ -138.5 =  -0.0016079 +j -0.0014232
888       Resid        5.5954E-7 /_ -145.0 =   -4.5823E-7 +j -3.2111E-7

ELEMENT = "Line.l28a"
858           1          0.14285 /_  -22.8 =    0.13168 +j  -0.05537
------------
MID864        1          0.14637 /_  153.6 =   -0.13115 +j  0.064991

ELEMENT = "Line.l28b"
MID864        1        0.0096353 /_   86.8 =  0.00053291 +j 0.0096205
------------
864           1       4.0674E-12 /_  -26.6 =  3.638E-12 +j -1.819E-12

ELEMENT = "Line.l17a"
834           1           11.156 /_  -43.1 =     8.1522 +j   -7.6162
834           2           9.0778 /_ -154.8 =    -8.2168 +j   -3.8589
834           3             10.6 /_   99.3 =    -1.7149 +j    10.461
834       Resid           2.0483 /_   29.7 =      1.7794 +j    1.0145
------------
MID860        1           11.169 /_  136.9 =    -8.1524 +j    7.6342
MID860        2           9.0846 /_   25.1 =     8.2295 +j    3.8477
MID860        3           10.606 /_  -80.8 =     1.7013 +j   -10.468
MID860    Resid           2.0471 /_ -150.3 =     -1.7785 +j   -1.0137

ELEMENT = "Line.l17b"
MID860        1            5.851 /_  -33.5 =     4.8804 +j   -3.2274
MID860        2           7.6472 /_ -156.4 =    -7.0093 +j   -3.0575
MID860        3           5.2829 /_   86.2 =    0.35043 +j    5.2712
MID860    Resid           2.0471 /_   29.7 =      1.7785 +j    1.0137
------------
860           1           5.8611 /_  146.4 =    -4.8806 +j    3.2454
860           2           7.6544 /_   23.5 =     7.0221 +j    3.0463
860           3           5.2914 /_  -93.9 =   -0.36399 +j   -5.2788
860       Resid           2.0459 /_ -150.3 =     -1.7776 +j   -1.0129

ELEMENT = "Line.l30a"
860           1           4.1583 /_  -30.2 =     3.5941 +j   -2.0913
860           2           5.9462 /_ -154.7 =    -5.3738 +j   -2.5455
860           3           3.5928 /_   90.2 =   -0.01289 +j    3.5927
860       Resid           2.0745 /_   30.2 =      1.7926 +j    1.0441
------------
MID836        1           4.1705 /_  149.5 =    -3.5943 +j    2.1152
MID836        2           5.9552 /_   25.1 =     5.3908 +j    2.5306
MID836        3           3.6028 /_  -90.1 =  -0.005098 +j   -3.6028
MID836    Resid           2.0729 /_ -149.8 =     -1.7914 +j    -1.043

ELEMENT = "Line.l30b"
MID836        1           1.4859 /_  -18.9 =     1.4055 +j  -0.48229
MID836        2            4.402 /_ -150.5 =    -3.8317 +j   -2.1669
MID836        3           1.7272 /_   68.4 =     0.6349 +j    1.6062
MID836    Resid           2.0729 /_   30.2 =      1.7914 +j     1.043
------------
836           1            1.494 /_  160.2 =    -1.4057 +j   0.50614
836           2           4.4095 /_   29.2 =     3.8487 +j    2.1521
836           3           1.7432 /_ -112.0 =   -0.65289 +j   -1.6163
836       Resid           2.0713 /_ -149.8 =     -1.7901 +j   -1.0419

ELEMENT = "Line.l20"
836           1        0.0049825 /_   90.5 =  -0.000042925 +j 0.0049823
836           2           2.0792 /_ -149.4 =    -1.7899 +j    -1.058
836           3        0.0043055 /_ -150.8 =  -0.0037582 +j -0.0021007
836       Resid            2.081 /_   30.5 =      1.7937 +j    1.0551
------------
862           1        2.933E-11 /_ -150.3 =  -2.5466E-11 +j -1.4552E-11
862           2           2.0807 /_   30.5 =     1.7935 +j    1.0549
862           3       2.6234E-11 /_  146.3 =  -2.1828E-11 +j 1.4552E-11
862       Resid           2.0807 /_ -149.5 =     -1.7935 +j   -1.0549

ELEMENT = "Line.l31a"
862           2           2.0807 /_ -149.5 =    -1.7935 +j   -1.0549
------------
MID838        2           2.0935 /_   29.7 =     1.8181 +j     1.038

ELEMENT = "Line.l31b"
MID838        2         0.029844 /_  -34.4 =   0.024612 +j -0.016878
------------
838           2        3.638E-12 /_    0.0 =  3.638E-12 +j         0

ELEMENT = "Line.l32"
888           1           69.873 /_  -32.3 =     59.085 +j   -37.299
888           2           70.108 /_ -152.8 =    -62.333 +j   -32.089
888           3           69.463 /_   87.3 =      3.246 +j    69.387
888       Resid        0.0021479 /_   41.5 =   0.0016084 +j 0.0014235
------------
890           1           69.889 /_  147.7 =    -59.084 +j     37.33
890           2           70.117 /_   27.2 =     62.354 +j    32.069
890           3           69.476 /_  -92.7 =    -3.2692 +j   -69.399
890       Resid       2.5182E-13 /_ -163.6 =   -2.4158E-13 +j -7.1054E-14

ELEMENT = "Capacitor.c844"
844           1           7.1726 /_   86.7 =    0.40904 +j    7.1609
844           2           7.1945 /_  -34.5 =     5.9314 +j   -4.0717
844           3           7.1741 /_ -154.0 =    -6.4464 +j   -3.1484
844       Resid          0.12132 /_   29.2 =     0.10592 +j  0.059158
------------
844           0           7.1726 /_  -93.3 =   -0.40904 +j   -7.1609
844           0           7.1945 /_  145.5 =    -5.9314 +j    4.0717
844           0           7.1741 /_   26.0 =     6.4464 +j    3.1484
844       Resid          0.12132 /_ -150.8 =    -0.10592 +j -0.059158

ELEMENT = "Capacitor.c848"
848           1           10.762 /_   86.7 =    0.62323 +j    10.744
848           2           10.792 /_  -34.5 =     8.8916 +j   -6.1158
848           3           10.765 /_ -154.0 =    -9.6773 +j   -4.7144
848       Resid          0.18398 /_   28.0 =     0.16246 +j   0.08633
------------
848           0           10.762 /_  -93.3 =   -0.62323 +j   -10.744
848           0           10.792 /_  145.5 =    -8.8916 +j    6.1158
848           0           10.765 /_   26.0 =     9.6773 +j    4.7144
848       Resid          0.18398 /_ -152.0 =    -0.16246 +j  -0.08633

ELEMENT = "Transformer.reg1a"
814           1           52.136 /_  -14.7 =     50.428 +j   -13.234
814           0           52.136 /_  165.3 =    -50.428 +j    13.234
------------
814R          1           48.218 /_  165.3 =    -46.639 +j     12.24
814R          0           48.218 /_  -14.7 =     46.639 +j    -12.24

ELEMENT = "Transformer.reg1b"
814           2           41.532 /_ -128.6 =    -25.927 +j   -32.446
814           0           41.532 /_   51.4 =     25.927 +j    32.446
------------
814R          2           40.274 /_   51.4 =     25.141 +j    31.463
814R          0           40.274 /_ -128.6 =    -25.141 +j   -31.463

ELEMENT = "Transformer.reg1c"
814           3           39.352 /_  116.2 =    -17.382 +j    35.305
814           0           39.352 /_  -63.8 =     17.382 +j   -35.305
------------
814R          3            38.16 /_  -63.8 =     16.855 +j   -34.235
814R          0            38.16 /_  116.2 =    -16.855 +j    34.235

ELEMENT = "Transformer.reg2a"
852           1           34.144 /_  -11.0 =      33.52 +j   -6.4999
852           0           34.144 /_  169.0 =     -33.52 +j    6.4999
------------
852R          1           31.762 /_  169.0 =    -31.181 +j    6.0464
852R          0           31.762 /_  -11.0 =     31.181 +j   -6.0464

ELEMENT = "Transformer.reg2b"
852           2           36.138 /_ -128.6 =    -22.537 +j    -28.25
852           0           36.138 /_   51.4 =     22.537 +j     28.25
------------
852R          2           33.617 /_   51.4 =     20.964 +j    26.279
852R          0           33.617 /_ -128.6 =    -20.964 +j   -26.279

ELEMENT = "Transformer.reg2c"
852           3            36.51 /_  115.4 =     -15.65 +j    32.985
852           0            36.51 /_  -64.6 =      15.65 +j   -32.985
------------
852R          3           33.962 /_  -64.6 =     14.558 +j   -30.684
852R          0           33.962 /_  115.4 =    -14.558 +j    30.684

= = = = = = = = = = = = = = = = = = =  = = = = = = = = = = =  = =

Power Conversion Elements

  Bus     Phase    Magnitude, A     Angle      (Real)   +j  (Imag)

ELEMENT = "Load.s860"
860           1           1.7282 /_  -41.9 =     1.2864 +j    -1.154
860           2           1.7227 /_ -163.1 =    -1.6483 +j  -0.50084
860           3           1.7277 /_   77.4 =    0.37687 +j    1.6861
860           0          0.03465 /_ -115.7 =   -0.01502 +j -0.031225

ELEMENT = "Load.s840"
840           1          0.79311 /_  -41.1 =     0.5976 +j  -0.52144
840           2          0.79311 /_ -162.3 =   -0.75563 +j  -0.24094
840           3          0.79311 /_   78.2 =    0.16238 +j   0.77631
840           0         0.014594 /_ -107.3 =  -0.0043519 +j  -0.01393

ELEMENT = "Load.s844"
844           1           12.267 /_  -41.1 =     9.2375 +j   -8.0709
844           2           12.304 /_ -162.3 =    -11.724 +j    -3.732
...