examples/dssparser/dssfiles/34Bus/ieee34-2_Power_elem_kVA.txt

CIRCUIT ELEMENT POWER FLOW

(Power Flow into element from indicated Bus)

Power Delivery Elements

  Bus     Phase     kW     +j   kvar         kVA         PF

ELEMENT = "Vsource.source"
SOURCEBUS    1      -691.6 +j   -156.5      709.1       0.9753
SOURCEBUS    2      -625.9 +j    -74.8      630.4       0.9929
SOURCEBUS    3      -729.5 +j    -58.8      731.9       0.9968
   TERMINAL TOTAL . -2047.0 +j   -290.1     2067.5       0.9901
SOURCEBUS    0         0.0 +j      0.0        0.0       1.0000
SOURCEBUS    0         0.0 +j      0.0        0.0       1.0000
SOURCEBUS    0         0.0 +j      0.0        0.0       1.0000
   TERMINAL TOTAL .     0.0 +j      0.0        0.0       1.0000

ELEMENT = "Transformer.subxf"
SOURCEBUS     1       691.6 +j    156.5      709.1       0.9753
SOURCEBUS     2       625.9 +j     74.8      630.4       0.9929
SOURCEBUS     3       729.5 +j     58.8      731.9       0.9968
SOURCEBUS     0         0.0 +j      0.0        0.0       1.0000
   TERMINAL TOTAL .  2047.0 +j    290.1     2067.5       0.9901
800           1      -759.7 +j   -171.5      778.8       0.9755
800           2      -670.5 +j    -90.0      676.5       0.9911
800           3      -616.9 +j    -28.5      617.5       0.9989
800           0         0.0 +j      0.0        0.0       1.0000
   TERMINAL TOTAL . -2047.0 +j   -290.1     2067.5       0.9901

ELEMENT = "Line.l1"
800           1       759.7 +j    171.5      778.8       0.9755
800           2       670.5 +j     90.0      676.5       0.9911
800           3       616.9 +j     28.5      617.5       0.9989
   TERMINAL TOTAL .  2047.0 +j    290.1     2067.5       0.9901
802           1      -758.1 +j   -171.1      777.1       0.9755
802           2      -669.5 +j    -89.8      675.5       0.9911
802           3      -616.0 +j    -28.6      616.7       0.9989
   TERMINAL TOTAL . -2043.5 +j   -289.5     2063.9       0.9901

ELEMENT = "Line.l2a"
802           1       758.1 +j    171.1      777.1       0.9755
802           2       669.5 +j     89.8      675.5       0.9911
802           3       616.0 +j     28.6      616.7       0.9989
   TERMINAL TOTAL .  2043.5 +j    289.5     2063.9       0.9901
MID806        1      -757.5 +j   -171.0      776.6       0.9755
MID806        2      -669.1 +j    -89.7      675.1       0.9911
MID806        3      -615.7 +j    -28.6      616.4       0.9989
   TERMINAL TOTAL . -2042.4 +j   -289.3     2062.8       0.9901

ELEMENT = "Line.l2b"
MID806        1       757.5 +j    171.0      776.6       0.9755
MID806        2       639.1 +j     74.7      643.5       0.9932
MID806        3       590.7 +j     14.6      590.9       0.9997
   TERMINAL TOTAL .  1987.4 +j    260.3     2004.3       0.9915
806           1      -757.0 +j   -170.9      776.0       0.9755
806           2      -638.8 +j    -74.6      643.2       0.9932
806           3      -590.5 +j    -14.6      590.6       0.9997
   TERMINAL TOTAL . -1986.3 +j   -260.2     2003.2       0.9915

ELEMENT = "Line.l3"
806           1       757.0 +j    170.9      776.0       0.9755
806           2       638.8 +j     74.6      643.2       0.9932
806           3       590.5 +j     14.6      590.6       0.9997
   TERMINAL TOTAL .  1986.3 +j    260.2     2003.2       0.9915
808           1      -736.2 +j   -165.8      754.7       0.9756
808           2      -627.9 +j    -72.4      632.1       0.9934
808           3      -580.6 +j    -15.8      580.8       0.9996
   TERMINAL TOTAL . -1944.8 +j   -254.1     1961.3       0.9916

ELEMENT = "Line.l4a"
808           2         0.0 +j      0.0        0.0       0.8893
   TERMINAL TOTAL .     0.0 +j      0.0        0.0       0.8893

ELEMENT = "Line.l4b"
MID810        2         0.0 +j      0.0        0.0       0.8833
   TERMINAL TOTAL .     0.0 +j      0.0        0.0       0.8833

ELEMENT = "Line.l5"
808           1       736.2 +j    165.8      754.7       0.9756
808           2       611.5 +j     65.2      614.9       0.9944
808           3       580.6 +j     15.8      580.8       0.9996
   TERMINAL TOTAL .  1928.3 +j    246.8     1944.0       0.9919
812           1      -712.0 +j   -158.9      729.6       0.9760
812           2      -599.7 +j    -63.0      603.0       0.9945
812           3      -568.9 +j    -16.9      569.1       0.9996
   TERMINAL TOTAL . -1880.6 +j   -238.8     1895.7       0.9920

ELEMENT = "Line.l6"
812           1       712.0 +j    158.9      729.6       0.9760
812           2       599.7 +j     63.0      603.0       0.9945
812           3       568.9 +j     16.9      569.1       0.9996
   TERMINAL TOTAL .  1880.6 +j    238.8     1895.7       0.9920
814           1      -692.7 +j   -152.8      709.4       0.9765
814           2      -590.4 +j    -61.0      593.6       0.9947
814           3      -559.5 +j    -17.5      559.8       0.9995
   TERMINAL TOTAL . -1842.7 +j   -231.3     1857.1       0.9922

ELEMENT = "Line.l7"
814R          1       692.7 +j    152.8      709.4       0.9765
814R          2       590.4 +j     61.0      593.6       0.9947
814R          3       559.5 +j     17.5      559.8       0.9995
   TERMINAL TOTAL .  1842.7 +j    231.2     1857.1       0.9922
850           1      -692.7 +j   -152.8      709.4       0.9765
850           2      -590.4 +j    -61.0      593.6       0.9947
850           3      -559.5 +j    -17.5      559.8       0.9995
   TERMINAL TOTAL . -1842.6 +j   -231.2     1857.1       0.9922

ELEMENT = "Line.l24"
850           1       692.7 +j    152.8      709.4       0.9765
850           2       590.4 +j     61.0      593.6       0.9947
850           3       559.5 +j     17.5      559.8       0.9995
   TERMINAL TOTAL .  1842.6 +j    231.2     1857.1       0.9922
816           1      -692.5 +j   -152.8      709.1       0.9765
816           2      -590.3 +j    -61.0      593.4       0.9947
816           3      -559.4 +j    -17.5      559.6       0.9995
   TERMINAL TOTAL . -1842.1 +j   -231.2     1856.5       0.9922

ELEMENT = "Line.l8"
816           1         0.2 +j      0.1        0.2       0.8837
   TERMINAL TOTAL .     0.2 +j      0.1        0.2       0.8837

ELEMENT = "Line.l9a"
816           1       518.7 +j     73.9      524.0       0.9900
816           2       590.3 +j     61.0      593.4       0.9947
816           3       559.4 +j     17.5      559.6       0.9995
   TERMINAL TOTAL .  1668.3 +j    152.4     1675.3       0.9959
MID824        1      -516.6 +j    -74.4      521.9       0.9898
MID824        2      -587.5 +j    -60.7      590.6       0.9947
MID824        3      -557.1 +j    -17.3      557.4       0.9995
   TERMINAL TOTAL . -1661.2 +j   -152.5     1668.2       0.9958

ELEMENT = "Line.l9b"
MID824        1       516.6 +j     74.4      521.9       0.9898
MID824        2       584.4 +j     61.2      587.6       0.9946
MID824        3       555.2 +j     14.8      555.4       0.9996
   TERMINAL TOTAL .  1656.2 +j    150.4     1663.0       0.9959
824           1      -514.5 +j    -74.9      519.9       0.9896
824           2      -581.6 +j    -61.0      584.8       0.9945
824           3      -553.0 +j    -14.7      553.2       0.9996
   TERMINAL TOTAL . -1649.1 +j   -150.5     1655.9       0.9959

ELEMENT = "Line.l10a"
818           1         2.2 +j      1.1        2.4       0.8879
   TERMINAL TOTAL .     2.2 +j      1.1        2.4       0.8879

ELEMENT = "Line.l10b"
MID820        1         1.4 +j      0.7        1.6       0.8889
   TERMINAL TOTAL .     1.4 +j      0.7        1.6       0.8889

ELEMENT = "Line.l11a"
820           1         0.4 +j      0.2        0.5       0.8849
   TERMINAL TOTAL .     0.4 +j      0.2        0.5       0.8849

ELEMENT = "Line.l11b"
MID822        1         0.0 +j      0.0        0.0       0.8833
   TERMINAL TOTAL .     0.0 +j      0.0        0.0       0.8833

ELEMENT = "Line.l12a"
824           2         0.0 +j      0.0        0.0       0.8845
   TERMINAL TOTAL .     0.0 +j      0.0        0.0       0.8845

ELEMENT = "Line.l12b"
MID826        2         0.0 +j      0.0        0.0       0.8833
   TERMINAL TOTAL .     0.0 +j      0.0        0.0       0.8833

ELEMENT = "Line.l13a"
824           1       514.5 +j     74.9      519.9       0.9896
824           2       541.0 +j     41.2      542.6       0.9971
824           3       553.0 +j     14.7      553.2       0.9996
   TERMINAL TOTAL .  1608.5 +j    130.8     1613.8       0.9967
MID828        1      -514.3 +j    -74.9      519.7       0.9896
MID828        2      -540.8 +j    -41.2      542.4       0.9971
MID828        3      -552.8 +j    -14.7      553.0       0.9996
   TERMINAL TOTAL . -1607.9 +j   -130.8     1613.2       0.9967

ELEMENT = "Line.l13b"
MID828        1       514.3 +j     74.9      519.7       0.9896
MID828        2       540.8 +j     41.2      542.4       0.9971
MID828        3       548.8 +j     12.7      549.0       0.9997
   TERMINAL TOTAL .  1603.9 +j    128.8     1609.1       0.9968
828           1      -514.1 +j    -75.0      519.5       0.9895
828           2      -540.6 +j    -41.2      542.2       0.9971
828           3      -548.6 +j    -12.7      548.8       0.9997
   TERMINAL TOTAL . -1603.4 +j   -128.8     1608.5       0.9968

ELEMENT = "Line.l14a"
828           1       514.1 +j     75.0      519.5       0.9895
828           2       540.6 +j     41.2      542.2       0.9971
828           3       548.6 +j     12.7      548.8       0.9997
   TERMINAL TOTAL .  1603.4 +j    128.8     1608.5       0.9968
MID830        1      -509.9 +j    -75.7      515.5       0.9891
MID830        2      -535.9 +j    -41.2      537.5       0.9971
MID830        3      -544.2 +j    -12.4      544.3       0.9997
   TERMINAL TOTAL . -1590.0 +j   -129.3     1595.3       0.9967

ELEMENT = "Line.l14b"
MID830        1       502.9 +j     72.7      508.1       0.9897
MID830        2       535.9 +j     41.2      537.5       0.9971
MID830        3       544.2 +j     12.4      544.3       0.9997
   TERMINAL TOTAL .  1583.0 +j    126.3     1588.0       0.9968
830           1      -498.7 +j    -73.5      504.1       0.9893
830           2      -531.3 +j    -41.2      532.9       0.9970
830           3      -539.8 +j    -12.1      539.9       0.9997
   TERMINAL TOTAL . -1569.8 +j   -126.8     1574.9       0.9968

ELEMENT = "Line.l15"
830           1       482.8 +j     61.8      486.8       0.9919
830           2       521.3 +j     36.2      522.5       0.9976
830           3       521.1 +j      9.0      521.2       0.9999
   TERMINAL TOTAL .  1525.2 +j    107.0     1528.9       0.9975
854           1      -482.6 +j    -61.8      486.6       0.9919
854           2      -521.1 +j    -36.2      522.3       0.9976
854           3      -520.9 +j     -9.0      520.9       0.9999
   TERMINAL TOTAL . -1524.6 +j   -107.0     1528.3       0.9975

ELEMENT = "Line.l16a"
832           1       316.9 +j    -20.0      317.5      -0.9980
832           2       347.2 +j    -45.5      350.2      -0.9915
832           3       354.7 +j    -75.6      362.6      -0.9780
   TERMINAL TOTAL .  1018.8 +j   -141.2     1028.5      -0.9905
MID858        1      -316.6 +j     19.5      317.2      -0.9981
MID858        2      -346.7 +j     45.1      349.6      -0.9916
MID858        3      -354.2 +j     75.3      362.2      -0.9781
   TERMINAL TOTAL . -1017.5 +j    140.0     1027.1      -0.9907

ELEMENT = "Line.l16b"
MID858        1       309.6 +j    -22.4      310.4      -0.9974
MID858        2       342.4 +j    -48.8      345.9      -0.9900
MID858        3       349.4 +j    -76.2      357.6      -0.9770
   TERMINAL TOTAL .  1001.4 +j   -147.5     1012.2      -0.9893
858           1      -309.3 +j     21.9      310.0      -0.9975
858           2      -341.9 +j     48.4      345.4      -0.9901
858           3      -349.0 +j     75.9      357.1      -0.9771
   TERMINAL TOTAL . -1000.2 +j    146.3     1010.8      -0.9895

ELEMENT = "Line.l29a"
858           1       307.3 +j    -22.6      308.1      -0.9973
858           2       341.9 +j    -48.4      345.4      -0.9901
858           3       349.0 +j    -75.9      357.1      -0.9771
   TERMINAL TOTAL .   998.2 +j   -147.0     1008.9      -0.9893
MID834        1      -306.9 +j     22.0      307.7      -0.9974
MID834        2      -341.3 +j     48.0      344.7      -0.9903
MID834        3      -348.5 +j     75.6      356.6      -0.9773
   TERMINAL TOTAL .  -996.7 +j    145.5     1007.3      -0.9895

ELEMENT = "Line.l29b"
MID834        1       299.9 +j    -29.2      301.3      -0.9953
MID834        2       330.1 +j    -49.7      333.8      -0.9888
MID834        3       334.8 +j    -83.6      345.1      -0.9702
   TERMINAL TOTAL .   964.7 +j   -162.5      978.3      -0.9861
834           1      -299.5 +j     28.6      300.9      -0.9955
834           2      -329.5 +j     49.3      333.2      -0.9890
834           3      -334.3 +j     83.2      344.5      -0.9704
   TERMINAL TOTAL .  -963.4 +j    161.1      976.7      -0.9863

ELEMENT = "Line.l18"
834           1       172.5 +j   -134.5      218.7      -0.7886
834           2       213.0 +j   -117.6      243.3      -0.8755
834           3       183.8 +j   -128.5      224.3      -0.8194
   TERMINAL TOTAL .   569.3 +j   -380.6      684.8      -0.8313
842           1      -172.5 +j    134.4      218.6      -0.7887
842           2      -213.0 +j    117.5      243.3      -0.8755
842           3      -183.8 +j    128.5      224.2      -0.8195
   TERMINAL TOTAL .  -569.2 +j    380.5      684.7      -0.8314

ELEMENT = "Line.l19a"
836           1        21.2 +j      6.4       22.2       0.9576
836           2        30.7 +j     16.0       34.7       0.8864
836           3        17.3 +j     19.3       25.9       0.6673
   TERMINAL TOTAL .    69.2 +j     41.7       80.8       0.8565
MID840        1       -21.2 +j     -6.5       22.2       0.9562
MID840        2       -30.7 +j    -16.1       34.7       0.8851
MID840        3       -17.3 +j    -19.4       26.0       0.6655
   TERMINAL TOTAL .   -69.2 +j    -42.0       81.0       0.8548

ELEMENT = "Line.l19b"
MID840        1         9.3 +j      7.1       11.7       0.7938
MID840        2         9.3 +j      7.1       11.7       0.7942
MID840        3         9.3 +j      7.1       11.7       0.7932
   TERMINAL TOTAL .    27.9 +j     21.4       35.1       0.7937
840           1        -9.3 +j     -7.2       11.8       0.7894
840           2        -9.3 +j     -7.2       11.8       0.7894
840           3        -9.3 +j     -7.2       11.8       0.7894
   TERMINAL TOTAL .   -27.9 +j    -21.7       35.3       0.7894

ELEMENT = "Line.l21a"
842           1       172.5 +j   -134.4      218.6      -0.7887
842           2       213.0 +j   -117.5      243.3      -0.8755
842           3       183.8 +j   -128.5      224.2      -0.8195
   TERMINAL TOTAL .   569.2 +j   -380.5      684.7      -0.8314
MID844        1      -172.4 +j    134.3      218.5      -0.7890
MID844        2      -212.9 +j    117.4      243.2      -0.8757
MID844        3      -183.7 +j    128.4      224.1      -0.8197
   TERMINAL TOTAL .  -569.1 +j    380.0      684.3      -0.8316

ELEMENT = "Line.l21b"
MID844        1       163.4 +j   -139.3      214.7      -0.7611
MID844        2       212.9 +j   -117.4      243.2      -0.8757
MID844        3       183.7 +j   -128.4      224.1      -0.8197
   TERMINAL TOTAL .   560.1 +j   -385.0      679.7      -0.8241
844           1      -163.4 +j    139.1      214.6      -0.7615
844           2      -212.9 +j    117.3      243.0      -0.8759
844           3      -183.7 +j    128.2      224.0      -0.8199
   TERMINAL TOTAL .  -559.9 +j    384.6      679.3      -0.8243

ELEMENT = "Line.l22a"
844           1        19.9 +j   -144.4      145.8      -0.1362
844           2        68.4 +j   -122.6      140.4      -0.4874
844           3        40.1 +j   -133.6      139.5      -0.2874
   TERMINAL TOTAL .   128.4 +j   -400.6      420.7      -0.3052
MID846        1       -19.8 +j    144.0      145.3      -0.1365
MID846        2       -68.3 +j    122.2      140.0      -0.4881
MID846        3       -40.1 +j    133.2      139.1      -0.2880
   TERMINAL TOTAL .  -128.2 +j    399.3      419.4      -0.3057

ELEMENT = "Line.l22b"
MID846        1        19.8 +j   -144.0      145.3      -0.1365
MID846        2        43.3 +j   -134.2      141.0      -0.3073
MID846        3        20.1 +j   -144.2      145.6      -0.1377
   TERMINAL TOTAL .    83.2 +j   -422.3      430.4      -0.1933
846           1       -19.8 +j    143.5      144.9      -0.1368
846           2       -43.2 +j    133.8      140.6      -0.3075
846           3       -20.0 +j    143.8      145.2      -0.1379
   TERMINAL TOTAL .   -83.1 +j    421.1      429.2      -0.1935

ELEMENT = "Line.l23a"
846           1        19.8 +j   -143.5      144.9      -0.1368
846           2        43.2 +j   -133.8      140.6      -0.3075
846           3        20.0 +j   -143.8      145.2      -0.1379
   TERMINAL TOTAL .    83.1 +j   -421.1      429.2      -0.1935
MID848        1       -19.8 +j    143.4      144.8      -0.1368
MID848        2       -43.2 +j    133.7      140.5      -0.3075
MID848        3       -20.0 +j    143.7      145.1      -0.1379
   TERMINAL TOTAL .   -83.0 +j    420.9      429.0      -0.1935

ELEMENT = "Line.l23b"
MID848        1        19.8 +j   -143.4      144.8      -0.1368
MID848        2        20.2 +j   -144.7      146.1      -0.1383
MID848        3        20.0 +j   -143.7      145.1      -0.1379
   TERMINAL TOTAL .    60.0 +j   -431.9      436.0      -0.1377
848           1       -19.8 +j    143.4      144.7      -0.1368
848           2       -20.2 +j    144.6      146.0      -0.1383
848           3       -20.0 +j    143.7      145.1      -0.1379
   TERMINAL TOTAL .   -60.0 +j    431.7      435.8      -0.1377

ELEMENT = "Line.l26a"
854           2         0.0 +j      0.0        0.0       0.9629
   TERMINAL TOTAL .     0.0 +j      0.0        0.0       0.9629

ELEMENT = "Line.l26b"
MID856        2         0.0 +j      0.0        0.0       0.8833
   TERMINAL TOTAL .     0.0 +j      0.0        0.0       0.8833

ELEMENT = "Line.l27"
854           1       482.6 +j     61.8      486.6       0.9919
854           2       517.1 +j     38.1      518.5       0.9973
854           3       520.9 +j      9.0      520.9       0.9999
   TERMINAL TOTAL .  1520.6 +j    108.9     1524.5       0.9974
852           1      -468.8 +j    -64.8      473.2       0.9906
852           2      -501.0 +j    -38.1      502.5       0.9971
852           3      -505.9 +j     -8.1      506.0       0.9999
   TERMINAL TOTAL . -1475.7 +j   -111.0     1479.9       0.9972

ELEMENT = "Line.l25"
852R          1       468.8 +j     64.7      473.2       0.9906
852R          2       501.0 +j     38.1      502.5       0.9971
852R          3       505.9 +j      8.1      506.0       0.9999
   TERMINAL TOTAL .  1475.7 +j    110.9     1479.9       0.9972
832           1      -468.8 +j    -64.7      473.2       0.9906
832           2      -501.0 +j    -38.1      502.5       0.9971
832           3      -505.9 +j     -8.1      506.0       0.9999
   TERMINAL TOTAL . -1475.7 +j   -110.9     1479.9       0.9972

ELEMENT = "Transformer.xfm1"
832           1       151.9 +j     84.7      173.9       0.8733
832           2       153.8 +j     83.6      175.1       0.8786
832           3       151.2 +j     83.8      172.9       0.8748
832           0         0.0 +j      0.0        0.0       1.0000
   TERMINAL TOTAL .   457.0 +j    252.1      521.9       0.8756
888           1      -148.7 +j    -77.8      167.8       0.8860
888           2      -150.6 +j    -76.7      169.0       0.8912
888           3      -148.1 +j    -77.0      166.9       0.8873
888           0        -0.0 +j      0.0        0.0       1.0000
   TERMINAL TOTAL .  -447.3 +j   -231.4      503.7       0.8882

ELEMENT = "Line.l28a"
858           1         0.0 +j      0.0        0.0       0.8976
   TERMINAL TOTAL .     0.0 +j      0.0        0.0       0.8976

ELEMENT = "Line.l28b"
MID864        1         0.0 +j      0.0        0.0       0.8833
   TERMINAL TOTAL .     0.0 +j      0.0        0.0       0.8833

ELEMENT = "Line.l17a"
834           1       127.1 +j    105.9      165.4       0.7681
834           2       116.5 +j     68.3      135.0       0.8625
834           3       150.5 +j     45.3      157.2       0.9576
   TERMINAL TOTAL .   394.1 +j    219.6      451.1       0.8736
MID860        1      -127.0 +j   -106.2      165.6       0.7673
MID860        2      -116.4 +j    -68.6      135.1       0.8616
MID860        3      -150.5 +j    -45.5      157.2       0.9572
   TERMINAL TOTAL .  -394.0 +j   -220.3      451.3       0.8728

ELEMENT = "Line.l17b"
MID860        1        74.9 +j     43.7       86.7       0.8639
MID860        2        96.4 +j     60.3      113.7       0.8481
MID860        3        67.9 +j     39.0       78.3       0.8672
   TERMINAL TOTAL .   239.3 +j    142.9      278.7       0.8585
860           1       -74.9 +j    -43.9       86.9       0.8626
860           2       -96.4 +j    -60.5      113.8       0.8470
860           3       -67.9 +j    -39.2       78.4       0.8660
   TERMINAL TOTAL .  -239.3 +j   -143.7      279.1       0.8573

ELEMENT = "Line.l30a"
860           1        54.9 +j     27.9       61.6       0.8913
860           2        76.4 +j     44.5       88.4       0.8641
860           3        47.9 +j     23.2       53.3       0.8999
   TERMINAL TOTAL .   179.3 +j     95.7      203.2       0.8822
MID836        1       -54.9 +j    -28.3       61.8       0.8891
MID836        2       -76.3 +j    -44.8       88.5       0.8624
MID836        3       -47.9 +j    -23.5       53.4       0.8977
   TERMINAL TOTAL .  -179.2 +j    -96.6      203.6       0.8802

ELEMENT = "Line.l30b"
MID836        1        21.2 +j      6.0       22.0       0.9627
MID836        2        58.8 +j     28.8       65.4       0.8982
MID836        3        17.3 +j     18.9       25.6       0.6740
   TERMINAL TOTAL .    97.2 +j     53.6      111.0       0.8756
836           1       -21.2 +j     -6.3       22.1       0.9585
836           2       -58.7 +j    -29.1       65.5       0.8961
836           3       -17.3 +j    -19.2       25.8       0.6684
   TERMINAL TOTAL .   -97.2 +j    -54.6      111.5       0.8718

ELEMENT = "Line.l20"
836           1        -0.0 +j     -0.1        0.1       0.0650
836           2        28.0 +j     13.0       30.9       0.9065
836           3        -0.0 +j     -0.1        0.1       0.0548
   TERMINAL TOTAL .    28.0 +j     12.9       30.8       0.9082
862           1        -0.0 +j      0.0        0.0      -0.8389
862           2       -28.0 +j    -13.1       30.9       0.9056
862           3         0.0 +j     -0.0        0.0      -0.8638
   TERMINAL TOTAL .   -28.0 +j    -13.1       30.9       0.9056

ELEMENT = "Line.l31a"
862           2         0.0 +j      0.0        0.0       0.8078
   TERMINAL TOTAL .     0.0 +j      0.0        0.0       0.8078

ELEMENT = "Line.l31b"
MID838        2         0.0 +j      0.0        0.0       0.8040
   TERMINAL TOTAL .     0.0 +j      0.0        0.0       0.8040

ELEMENT = "Line.l32"
888           1       148.7 +j     77.8      167.8       0.8860
888           2       150.6 +j     76.7      169.0       0.8912
888           3       148.1 +j     77.0      166.9       0.8873
   TERMINAL TOTAL .   447.3 +j    231.4      503.7       0.8882
890           1      -137.1 +j    -70.1      154.0       0.8902
890           2      -140.6 +j    -68.5      156.4       0.8991
890           3      -136.9 +j    -68.7      153.2       0.8938
   TERMINAL TOTAL .  -414.6 +j   -207.3      463.5       0.8944

ELEMENT = "Capacitor.c844"
844           1         0.0 +j   -106.3      106.3       1.0000
844           2        -0.0 +j   -107.0      107.0       0.0000
844           3         0.0 +j   -106.4      106.4       1.0000
   TERMINAL TOTAL .    -0.0 +j   -319.7      319.7       0.0000
844           0        -0.0 +j      0.0        0.0       1.0000
844           0         0.0 +j     -0.0        0.0       1.0000
844           0         0.0 +j      0.0        0.0       1.0000
   TERMINAL TOTAL .     0.0 +j      0.0        0.0       1.0000

ELEMENT = "Capacitor.c848"
848           1         0.0 +j   -159.6      159.6       1.0000
848           2         0.0 +j   -160.5      160.5       1.0000
848           3        -0.0 +j   -159.7      159.7       0.0000
   TERMINAL TOTAL .    -0.0 +j   -479.7      479.7       0.0000
848           0        -0.0 +j      0.0        0.0       1.0000
848           0         0.0 +j     -0.0        0.0       1.0000
848           0         0.0 +j      0.0        0.0       1.0000
   TERMINAL TOTAL .     0.0 +j      0.0        0.0       1.0000

ELEMENT = "Transformer.reg1a"
814           1       692.7 +j    152.8      709.4       0.9765
814           0         0.0 +j     -0.0        0.0       1.0000
   TERMINAL TOTAL .   692.7 +j    152.8      709.4       0.9765
814R          1      -692.7 +j   -152.8      709.4       0.9765
814R          0         0.0 +j      0.0        0.0       1.0000
   TERMINAL TOTAL .  -692.7 +j   -152.8      709.4       0.9765

ELEMENT = "Transformer.reg1b"
814           2       590.4 +j     61.0      593.6       0.9947
814           0         0.0 +j      0.0        0.0       1.0000
   TERMINAL TOTAL .   590.4 +j     61.0      593.6       0.9947
814R          2      -590.4 +j    -61.0      593.6       0.9947
814R          0        -0.0 +j      0.0        0.0       1.0000
   TERMINAL TOTAL .  -590.4 +j    -61.0      593.6       0.9947

ELEMENT = "Transformer.reg1c"
814           3       559.5 +j     17.5      559.8       0.9995
814           0         0.0 +j      0.0        0.0       1.0000
   TERMINAL TOTAL .   559.5 +j     17.5      559.8       0.9995
814R          3      -559.5 +j    -17.5      559.8       0.9995
814R          0         0.0 +j     -0.0        0.0       1.0000
   TERMINAL TOTAL .  -559.5 +j    -17.5      559.8       0.9995

ELEMENT = "Transformer.reg2a"
852           1       468.8 +j     64.8      473.2       0.9906
852           0         0.0 +j     -0.0        0.0       1.0000
   TERMINAL TOTAL .   468.8 +j     64.8      473.2       0.9906
852R          1      -468.8 +j    -64.7      473.2       0.9906
852R          0         0.0 +j      0.0        0.0       1.0000
   TERMINAL TOTAL .  -468.8 +j    -64.7      473.2       0.9906

ELEMENT = "Transformer.reg2b"
852           2       501.0 +j     38.1      502.5       0.9971
852           0         0.0 +j      0.0        0.0       1.0000
   TERMINAL TOTAL .   501.0 +j     38.1      502.5       0.9971
852R          2      -501.0 +j    -38.1      502.5       0.9971
852R          0        -0.0 +j      0.0        0.0       1.0000
   TERMINAL TOTAL .  -501.0 +j    -38.1      502.5       0.9971

ELEMENT = "Transformer.reg2c"
852           3       505.9 +j      8.1      506.0       0.9999
852           0         0.0 +j      0.0        0.0       1.0000
   TERMINAL TOTAL .   505.9 +j      8.1      506.0       0.9999
852R          3      -505.9 +j     -8.1      506.0       0.9999
852R          0         0.0 +j     -0.0        0.0       1.0000
   TERMINAL TOTAL .  -505.9 +j     -8.1      506.0       0.9999

= = = = = = = = = = = = = = = = = = =  = = = = = = = = = = =  = =

Power Conversion Elements

  Bus     Phase     kW   +j  kvar         kVA         PF

ELEMENT = "Load.s860"
860           1      20.0 +j   16.0       25.6       0.7809
860           2      20.0 +j   16.0       25.6       0.7809
860           3      20.0 +j   16.0       25.6       0.7809
860           0      -0.0 +j    0.0        0.0       1.0000
  TERMINAL TOTAL  .    60.0 +j     48.0       76.8       0.7809

ELEMENT = "Load.s840"
840           1       9.3 +j    7.2       11.8       0.7894
840           2       9.3 +j    7.2       11.8       0.7894
840           3       9.3 +j    7.2       11.8       0.7894
840           0      -0.0 +j    0.0        0.0       1.0000
  TERMINAL TOTAL  .    27.9 +j     21.7       35.3       0.7894

ELEMENT = "Load.s844"
844           1     143.5 +j  111.6      181.8       0.7894
844           2     144.4 +j  112.3      182.9       0.7894
844           3     143.6 +j  111.7      181.9       0.7894
844           0      -0.0 +j    0.0        0.0       1.0000
  TERMINAL TOTAL  .   431.5 +j    335.6      546.7       0.7894

ELEMENT = "Load.s848"
848           1      19.8 +j   16.2       25.6       0.7739
848           2      20.2 +j   15.8       25.7       0.7870
848           3      20.0 +j   16.0       25.6       0.7816
  TERMINAL TOTAL  .    60.0 +j     48.0       76.8       0.7809

ELEMENT = "Load.s830a"
830           1       6.4 +j   -0.3        6.4      -0.9986
830           2       3.6 +j    5.3        6.4       0.5573
  TERMINAL TOTAL  .    10.0 +j      5.0       11.2       0.8944

ELEMENT = "Load.s830b"
830           2       6.4 +j   -0.4        6.4      -0.9979
830           3       3.5 +j    5.3        6.4       0.5453
  TERMINAL TOTAL  .     9.9 +j      4.9       11.0       0.8944

ELEMENT = "Load.s830c"
830           3      15.2 +j   -2.2       15.4      -0.9896
830           1       9.5 +j   12.1       15.4       0.6178
  TERMINAL TOTAL  .    24.7 +j      9.9       26.6       0.9285

ELEMENT = "Load.s890"
890           1     137.0 +j   70.1      153.9       0.8902
890           2     140.6 +j   68.5      156.4       0.8991
890           3     136.9 +j   68.7      153.2       0.8938
  TERMINAL TOTAL  .   414.6 +j    207.3      463.5       0.8944

ELEMENT = "Load.d802_806b"
MID806        2      30.0 +j   15.0       33.5       0.8944
MID806        0       0.0 +j    0.0        0.0       1.0000
  TERMINAL TOTAL  .    30.0 +j     15.0       33.5       0.8944

ELEMENT = "Load.d802_806c"
MID806        3      25.0 +j   14.0       28.7       0.8725
MID806        0       0.0 +j    0.0        0.0       1.0000
  TERMINAL TOTAL  .    25.0 +j     14.0       28.7       0.8725

ELEMENT = "Load.d808_810b"
MID810        2      16.5 +j    8.2       18.4       0.8944
MID810        0       0.0 +j    0.0        0.0       1.0000
...