examples/dssparser/dssfiles/34Bus/ieee34-2_VLN_Node.txt

LINE-GROUND and LINE-LINE VOLTAGES BY BUS & NODE

Bus       Node    VLN (kV)   Angle      pu     Base kV    Node-Node   VLL (kV)  Angle      pu

SOURCEBUS 1       41.829 /_   30.0      1.05    69.000        1-2      72.45 /_   60.0      1.05
   -      2       41.829 /_  -90.0      1.05    69.000        2-3      72.45 /_  -60.0      1.05
   -      3       41.829 /_  150.0      1.05    69.000        3-1      72.45 /_  180.0      1.05
800 ..... 1       15.095 /_    0.0      1.05    24.900        1-2     26.145 /_   30.0      1.05
   -      2       15.095 /_ -120.0      1.05    24.900        2-3     26.145 /_  -90.0      1.05
   -      3       15.095 /_  120.0      1.05    24.900        3-1     26.145 /_  150.0      1.05
802 ..... 1       15.058 /_   -0.1    1.0474    24.900        1-2     26.096 /_   30.0     1.048
   -      2       15.072 /_ -120.1    1.0484    24.900        2-3     26.104 /_  -90.1    1.0483
   -      3       15.072 /_  119.9    1.0484    24.900        3-1     26.094 /_  149.9    1.0479
MID806 .. 1       15.046 /_   -0.1    1.0466    24.900        1-2     26.079 /_   29.9    1.0474
   -      2       15.064 /_ -120.1    1.0479    24.900        2-3      26.09 /_  -90.1    1.0478
   -      3       15.065 /_  119.9    1.0479    24.900        3-1     26.076 /_  149.9    1.0472
806 ..... 1       15.033 /_   -0.1    1.0457    24.900        1-2     26.063 /_   29.9    1.0467
   -      2       15.058 /_ -120.1    1.0474    24.900        2-3     26.077 /_  -90.1    1.0473
   -      3       15.058 /_  119.9    1.0474    24.900        3-1      26.06 /_  149.9    1.0466
808 ..... 1       14.571 /_   -0.7    1.0136    24.900        1-2     25.463 /_   29.4    1.0226
   -      2         14.8 /_ -121.0    1.0295    24.900        2-3     25.593 /_  -90.8    1.0278
   -      3       14.792 /_  119.3    1.0289    24.900        3-1     25.435 /_  149.0    1.0215
MID810 .. 2       14.797 /_ -121.0    1.0293    24.900
810 ..... 2       14.797 /_ -121.0    1.0293    24.900
812 ..... 1       14.033 /_   -1.6   0.97617    24.900        1-2     24.771 /_   28.8   0.99481
   -      2       14.516 /_ -121.9    1.0097    24.900        2-3     25.041 /_  -91.7    1.0057
   -      3       14.476 /_  118.6     1.007    24.900        3-1      24.71 /_  148.0   0.99239
814 ..... 1       13.607 /_   -2.3   0.94648    24.900        1-2      24.22 /_   28.3   0.97267
   -      2       14.292 /_ -122.7   0.99413    24.900        2-3     24.604 /_  -92.4   0.98813
   -      3       14.225 /_  118.0   0.98947    24.900        3-1     24.137 /_  147.1   0.96934
814R .... 1       14.712 /_   -2.3    1.0234    24.900        1-2     25.564 /_   27.5    1.0267
   -      2       14.738 /_ -122.7    1.0252    24.900        2-3     25.373 /_  -92.4     1.019
   -      3       14.669 /_  118.0    1.0204    24.900        3-1     25.479 /_  147.9    1.0232
850 ..... 1       14.712 /_   -2.3    1.0234    24.900        1-2     25.564 /_   27.5    1.0267
   -      2       14.738 /_ -122.7    1.0252    24.900        2-3     25.373 /_  -92.4     1.019
   -      3       14.669 /_  118.0    1.0204    24.900        3-1     25.479 /_  147.9    1.0232
816 ..... 1       14.706 /_   -2.3     1.023    24.900        1-2     25.556 /_   27.5    1.0264
   -      2       14.734 /_ -122.7    1.0249    24.900        2-3     25.366 /_  -92.5    1.0187
   -      3       14.665 /_  118.0    1.0201    24.900        3-1      25.47 /_  147.9    1.0229
818 ..... 1       14.693 /_   -2.3     1.022    24.900
MID824 .. 1       14.641 /_   -2.3    1.0184    24.900        1-2     25.448 /_   27.4     1.022
   -      2       14.666 /_ -122.9    1.0202    24.900        2-3     25.256 /_  -92.6    1.0143
   -      3       14.605 /_  117.9    1.0159    24.900        3-1     25.353 /_  147.8    1.0182
824 ..... 1       14.576 /_   -2.4    1.0139    24.900        1-2      25.34 /_   27.3    1.0177
   -      2       14.598 /_ -123.0    1.0154    24.900        2-3     25.147 /_  -92.7    1.0099
   -      3       14.545 /_  117.7    1.0117    24.900        3-1     25.235 /_  147.7    1.0135
MID820 .. 1       14.505 /_   -2.3    1.0089    24.900
820 ..... 1       14.353 /_   -2.3    0.9984    24.900
MID822 .. 1       14.309 /_   -2.3   0.99536    24.900
822 ..... 1       14.309 /_   -2.3   0.99537    24.900
MID826 .. 2       14.595 /_ -123.0    1.0152    24.900
826 ..... 2       14.595 /_ -123.0    1.0152    24.900
MID828 .. 1       14.571 /_   -2.4    1.0136    24.900        1-2     25.331 /_   27.3    1.0173
   -      2       14.593 /_ -123.0    1.0151    24.900        2-3     25.138 /_  -92.7    1.0096
   -      3       14.539 /_  117.7    1.0114    24.900        3-1     25.225 /_  147.7    1.0131
828 ..... 1       14.565 /_   -2.4    1.0132    24.900        1-2     25.323 /_   27.3     1.017
   -      2       14.588 /_ -123.0    1.0147    24.900        2-3      25.13 /_  -92.7    1.0092
   -      3       14.534 /_  117.7     1.011    24.900        3-1     25.216 /_  147.7    1.0127
MID830 .. 1       14.436 /_   -2.5    1.0042    24.900        1-2     25.116 /_   27.2    1.0087
   -      2       14.465 /_ -123.2    1.0062    24.900        2-3     24.922 /_  -92.9    1.0009
   -      3       14.412 /_  117.5    1.0025    24.900        3-1     24.982 /_  147.5    1.0033
830 ..... 1       14.308 /_   -2.6   0.99529    24.900        1-2      24.91 /_   27.0    1.0004
   -      2       14.342 /_ -123.4   0.99765    24.900        2-3     24.714 /_  -93.2   0.99253
   -      3        14.29 /_  117.2     0.994    24.900        3-1      24.75 /_  147.3   0.99397
854 ..... 1       14.302 /_   -2.6   0.99485    24.900        1-2       24.9 /_   27.0   0.99999
   -      2       14.336 /_ -123.4   0.99722    24.900        2-3     24.704 /_  -93.2   0.99211
   -      3       14.284 /_  117.2   0.99358    24.900        3-1     24.739 /_  147.3   0.99352
832 ..... 1       14.899 /_   -3.1    1.0364    24.900        1-2     25.993 /_   26.4    1.0439
   -      2       14.947 /_ -124.2    1.0397    24.900        2-3     25.776 /_  -94.0    1.0352
   -      3       14.898 /_  116.3    1.0363    24.900        3-1     25.729 /_  146.6    1.0333
MID858 .. 1       14.882 /_   -3.1    1.0352    24.900        1-2     25.965 /_   26.3    1.0428
   -      2        14.93 /_ -124.3    1.0385    24.900        2-3     25.749 /_  -94.1    1.0341
   -      3       14.882 /_  116.2    1.0352    24.900        3-1     25.697 /_  146.6     1.032
858 ..... 1       14.866 /_   -3.2    1.0341    24.900        1-2     25.939 /_   26.3    1.0417
   -      2       14.913 /_ -124.3    1.0374    24.900        2-3     25.722 /_  -94.1     1.033
   -      3       14.867 /_  116.2    1.0341    24.900        3-1     25.666 /_  146.5    1.0308
MID834 .. 1       14.846 /_   -3.2    1.0327    24.900        1-2     25.907 /_   26.3    1.0404
   -      2       14.894 /_ -124.4     1.036    24.900        2-3      25.69 /_  -94.2    1.0317
   -      3       14.848 /_  116.1    1.0328    24.900        3-1     25.629 /_  146.5    1.0293
834 ..... 1       14.827 /_   -3.2    1.0314    24.900        1-2     25.876 /_   26.2    1.0392
   -      2       14.874 /_ -124.4    1.0347    24.900        2-3      25.66 /_  -94.2    1.0305
   -      3       14.831 /_  116.1    1.0316    24.900        3-1     25.594 /_  146.4    1.0279
842 ..... 1       14.827 /_   -3.2    1.0313    24.900        1-2     25.875 /_   26.2    1.0391
   -      2       14.873 /_ -124.4    1.0346    24.900        2-3     25.659 /_  -94.2    1.0305
   -      3        14.83 /_  116.1    1.0316    24.900        3-1     25.593 /_  146.4    1.0278
836 ..... 1       14.818 /_   -3.2    1.0308    24.900        1-2      25.86 /_   26.2    1.0385
   -      2       14.863 /_ -124.4    1.0339    24.900        2-3     25.644 /_  -94.2    1.0299
   -      3       14.823 /_  116.1    1.0311    24.900        3-1     25.578 /_  146.4    1.0272
MID840 .. 1       14.818 /_   -3.2    1.0307    24.900        1-2     25.859 /_   26.2    1.0385
   -      2       14.863 /_ -124.4    1.0338    24.900        2-3     25.643 /_  -94.2    1.0299
   -      3       14.823 /_  116.1    1.0311    24.900        3-1     25.578 /_  146.4    1.0272
840 ..... 1       14.818 /_   -3.2    1.0307    24.900        1-2     25.859 /_   26.2    1.0385
   -      2       14.863 /_ -124.4    1.0338    24.900        2-3     25.643 /_  -94.2    1.0299
   -      3       14.823 /_  116.1    1.0311    24.900        3-1     25.578 /_  146.4    1.0272
MID844 .. 1       14.825 /_   -3.3    1.0312    24.900        1-2     25.871 /_   26.2     1.039
   -      2       14.871 /_ -124.5    1.0344    24.900        2-3     25.656 /_  -94.3    1.0303
   -      3       14.828 /_  116.0    1.0315    24.900        3-1      25.59 /_  146.4    1.0277
844 ..... 1       14.824 /_   -3.3    1.0311    24.900        1-2     25.868 /_   26.2    1.0389
   -      2       14.869 /_ -124.5    1.0343    24.900        2-3     25.652 /_  -94.3    1.0302
   -      3       14.827 /_  116.0    1.0314    24.900        3-1     25.587 /_  146.4    1.0276
MID846 .. 1       14.826 /_   -3.3    1.0313    24.900        1-2     25.869 /_   26.2    1.0389
   -      2       14.868 /_ -124.5    1.0342    24.900        2-3     25.653 /_  -94.3    1.0302
   -      3       14.828 /_  116.0    1.0315    24.900        3-1     25.589 /_  146.4    1.0277
846 ..... 1       14.827 /_   -3.3    1.0314    24.900        1-2     25.872 /_   26.1     1.039
   -      2       14.869 /_ -124.5    1.0343    24.900        2-3     25.656 /_  -94.3    1.0304
   -      3       14.831 /_  116.0    1.0316    24.900        3-1     25.593 /_  146.3    1.0278
MID848 .. 1       14.828 /_   -3.3    1.0314    24.900        1-2     25.872 /_   26.1     1.039
   -      2       14.869 /_ -124.5    1.0343    24.900        2-3     25.656 /_  -94.3    1.0304
   -      3       14.831 /_  116.0    1.0317    24.900        3-1     25.593 /_  146.3    1.0278
848 ..... 1       14.828 /_   -3.3    1.0314    24.900        1-2     25.872 /_   26.1    1.0391
   -      2       14.869 /_ -124.5    1.0343    24.900        2-3     25.657 /_  -94.3    1.0304
   -      3       14.831 /_  116.0    1.0317    24.900        3-1     25.594 /_  146.3    1.0279
MID856 .. 2       14.335 /_ -123.4   0.99711    24.900
856 ..... 2       14.335 /_ -123.4   0.99713    24.900
852 ..... 1        13.86 /_   -3.1    0.9641    24.900        1-2      24.18 /_   26.4   0.97107
   -      2       13.904 /_ -124.2   0.96719    24.900        2-3     23.978 /_  -94.0   0.96298
   -      3       13.859 /_  116.3   0.96402    24.900        3-1     23.934 /_  146.6    0.9612
852R .... 1       14.899 /_   -3.1    1.0364    24.900        1-2     25.993 /_   26.4    1.0439
   -      2       14.947 /_ -124.2    1.0397    24.900        2-3     25.777 /_  -94.0    1.0352
   -      3       14.898 /_  116.3    1.0363    24.900        3-1     25.729 /_  146.6    1.0333
888 ..... 1       2.4019 /_   -4.6         1     4.160        1-2     4.1913 /_   24.9    1.0075
   -      2       2.4103 /_ -125.8    1.0035     4.160        2-3      4.156 /_  -95.6   0.99904
   -      3       2.4024 /_  114.8    1.0002     4.160        3-1     4.1483 /_  145.1   0.99718
MID864 .. 1       14.866 /_   -3.2    1.0341    24.900
864 ..... 1       14.866 /_   -3.2    1.0341    24.900
MID860 .. 1       14.823 /_   -3.2    1.0311    24.900        1-2      25.87 /_   26.2     1.039
   -      2       14.871 /_ -124.4    1.0344    24.900        2-3     25.655 /_  -94.2    1.0303
   -      3       14.827 /_  116.1    1.0314    24.900        3-1     25.586 /_  146.4    1.0276
860 ..... 1       14.821 /_   -3.2     1.031    24.900        1-2     25.866 /_   26.2    1.0388
   -      2       14.868 /_ -124.4    1.0342    24.900        2-3     25.651 /_  -94.2    1.0301
   -      3       14.825 /_  116.1    1.0312    24.900        3-1     25.583 /_  146.4    1.0274
MID836 .. 1       14.819 /_   -3.2    1.0308    24.900        1-2     25.862 /_   26.2    1.0386
   -      2       14.865 /_ -124.4     1.034    24.900        2-3     25.647 /_  -94.2      1.03
   -      3       14.824 /_  116.1    1.0311    24.900        3-1     25.579 /_  146.4    1.0273
862 ..... 1       14.818 /_   -3.2    1.0308    24.900        1-2     25.859 /_   26.2    1.0385
   -      2       14.863 /_ -124.4    1.0339    24.900        2-3     25.644 /_  -94.2    1.0299
   -      3       14.823 /_  116.1    1.0311    24.900        3-1     25.578 /_  146.4    1.0272
MID838 .. 2        14.86 /_ -124.4    1.0337    24.900
838 ..... 2        14.86 /_ -124.4    1.0337    24.900
890 ..... 1       2.2028 /_   -5.2   0.91716     4.160        1-2     3.8706 /_   24.2   0.93043
   -      2       2.2305 /_ -126.8   0.92869     4.160        2-3     3.8261 /_  -96.6   0.91973
   -      3       2.2048 /_  114.0   0.91799     4.160        3-1     3.8004 /_  144.4   0.91357
